
---------- Begin Simulation Statistics ----------
sim_seconds                                  1.134432                       # Number of seconds simulated
sim_ticks                                1134431897000                       # Number of ticks simulated
final_tick                               1134431897000                       # Number of ticks from beginning of simulation (restored from checkpoints and never reset)
sim_freq                                 1000000000000                       # Frequency of simulated ticks
host_inst_rate                                 350997                       # Simulator instruction rate (inst/s)
host_op_rate                                   569188                       # Simulator op (including micro ops) rate (op/s)
host_tick_rate                              789905487                       # Simulator tick rate (ticks/s)
host_mem_usage                                 661668                       # Number of bytes of host memory used
host_seconds                                  1436.16                       # Real time elapsed on the host
sim_insts                                   504088751                       # Number of instructions simulated
sim_ops                                     817446081                       # Number of ops (including micro ops) simulated
system.voltage_domain.voltage                       1                       # Voltage in Volts
system.clk_domain.clock                          1000                       # Clock period in ticks
system.mem_ctrls.pwrStateResidencyTicks::UNDEFINED 1134431897000                       # Cumulative time (in ticks) in various power states
system.mem_ctrls.bytes_read::cpu.inst           22656                       # Number of bytes read from this memory
system.mem_ctrls.bytes_read::cpu.data        21842048                       # Number of bytes read from this memory
system.mem_ctrls.bytes_read::total           21864704                       # Number of bytes read from this memory
system.mem_ctrls.bytes_inst_read::cpu.inst        22656                       # Number of instructions bytes read from this memory
system.mem_ctrls.bytes_inst_read::total         22656                       # Number of instructions bytes read from this memory
system.mem_ctrls.bytes_written::writebacks     20810560                       # Number of bytes written to this memory
system.mem_ctrls.bytes_written::total        20810560                       # Number of bytes written to this memory
system.mem_ctrls.num_reads::cpu.inst              354                       # Number of read requests responded to by this memory
system.mem_ctrls.num_reads::cpu.data           341282                       # Number of read requests responded to by this memory
system.mem_ctrls.num_reads::total              341636                       # Number of read requests responded to by this memory
system.mem_ctrls.num_writes::writebacks        325165                       # Number of write requests responded to by this memory
system.mem_ctrls.num_writes::total             325165                       # Number of write requests responded to by this memory
system.mem_ctrls.bw_read::cpu.inst              19971                       # Total read bandwidth from this memory (bytes/s)
system.mem_ctrls.bw_read::cpu.data           19253732                       # Total read bandwidth from this memory (bytes/s)
system.mem_ctrls.bw_read::total              19273703                       # Total read bandwidth from this memory (bytes/s)
system.mem_ctrls.bw_inst_read::cpu.inst         19971                       # Instruction read bandwidth from this memory (bytes/s)
system.mem_ctrls.bw_inst_read::total            19971                       # Instruction read bandwidth from this memory (bytes/s)
system.mem_ctrls.bw_write::writebacks        18344477                       # Write bandwidth from this memory (bytes/s)
system.mem_ctrls.bw_write::total             18344477                       # Write bandwidth from this memory (bytes/s)
system.mem_ctrls.bw_total::writebacks        18344477                       # Total bandwidth to/from this memory (bytes/s)
system.mem_ctrls.bw_total::cpu.inst             19971                       # Total bandwidth to/from this memory (bytes/s)
system.mem_ctrls.bw_total::cpu.data          19253732                       # Total bandwidth to/from this memory (bytes/s)
system.mem_ctrls.bw_total::total             37618181                       # Total bandwidth to/from this memory (bytes/s)
system.pwrStateResidencyTicks::UNDEFINED 1134431897000                       # Cumulative time (in ticks) in various power states
system.cpu_voltage_domain.voltage                   1                       # Voltage in Volts
system.cpu_clk_domain.clock                       500                       # Clock period in ticks
system.cpu.dtb.walker.pwrStateResidencyTicks::UNDEFINED 1134431897000                       # Cumulative time (in ticks) in various power states
system.cpu.dtb.rdAccesses                   238245975                       # TLB accesses on read requests
system.cpu.dtb.wrAccesses                    64374646                       # TLB accesses on write requests
system.cpu.dtb.rdMisses                          5921                       # TLB misses on read requests
system.cpu.dtb.wrMisses                           999                       # TLB misses on write requests
system.cpu.apic_clk_domain.clock                 8000                       # Clock period in ticks
system.cpu.interrupts.pwrStateResidencyTicks::UNDEFINED 1134431897000                       # Cumulative time (in ticks) in various power states
system.cpu.itb.walker.pwrStateResidencyTicks::UNDEFINED 1134431897000                       # Cumulative time (in ticks) in various power states
system.cpu.itb.rdAccesses                           0                       # TLB accesses on read requests
system.cpu.itb.wrAccesses                   677335181                       # TLB accesses on write requests
system.cpu.itb.rdMisses                             0                       # TLB misses on read requests
system.cpu.itb.wrMisses                            35                       # TLB misses on write requests
system.cpu.workload.numSyscalls                     9                       # Number of system calls
system.cpu.pwrStateResidencyTicks::ON    1134431897000                       # Cumulative time (in ticks) in various power states
system.cpu.numCycles                       2268863794                       # number of cpu cycles simulated
system.cpu.numWorkItemsStarted                      0                       # number of work items this cpu started
system.cpu.numWorkItemsCompleted                    0                       # number of work items this cpu completed
system.cpu.committedInsts                   504088751                       # Number of instructions committed
system.cpu.committedOps                     817446081                       # Number of ops (including micro ops) committed
system.cpu.num_int_alu_accesses             812629962                       # Number of integer alu accesses
system.cpu.num_fp_alu_accesses                   1943                       # Number of float alu accesses
system.cpu.num_vec_alu_accesses                     0                       # Number of vector alu accesses
system.cpu.num_func_calls                     9452832                       # number of times a function call or return occured
system.cpu.num_conditional_control_insts     46565887                       # number of instructions that are conditional controls
system.cpu.num_int_insts                    812629962                       # number of integer instructions
system.cpu.num_fp_insts                          1943                       # number of float instructions
system.cpu.num_vec_insts                            0                       # number of vector instructions
system.cpu.num_int_register_reads          1822855533                       # number of times the integer registers were read
system.cpu.num_int_register_writes          705741295                       # number of times the integer registers were written
system.cpu.num_fp_register_reads                 3767                       # number of times the floating registers were read
system.cpu.num_fp_register_writes                1480                       # number of times the floating registers were written
system.cpu.num_vec_register_reads                   0                       # number of times the vector registers were read
system.cpu.num_vec_register_writes                  0                       # number of times the vector registers were written
system.cpu.num_cc_register_reads            297557760                       # number of times the CC registers were read
system.cpu.num_cc_register_writes           279904580                       # number of times the CC registers were written
system.cpu.num_mem_refs                     302620620                       # number of memory refs
system.cpu.num_load_insts                   238245974                       # Number of load instructions
system.cpu.num_store_insts                   64374646                       # Number of store instructions
system.cpu.num_idle_cycles                          0                       # Number of idle cycles
system.cpu.num_busy_cycles                 2268863794                       # Number of busy cycles
system.cpu.not_idle_fraction                        1                       # Percentage of non-idle cycles
system.cpu.idle_fraction                            0                       # Percentage of idle cycles
system.cpu.Branches                          60772143                       # Number of branches fetched
system.cpu.op_class::No_OpClass               1362109      0.17%      0.17% # Class of executed instruction
system.cpu.op_class::IntAlu                 505014342     61.78%     61.95% # Class of executed instruction
system.cpu.op_class::IntMult                        4      0.00%     61.95% # Class of executed instruction
system.cpu.op_class::IntDiv                   8448046      1.03%     62.98% # Class of executed instruction
system.cpu.op_class::FloatAdd                      10      0.00%     62.98% # Class of executed instruction
system.cpu.op_class::FloatCmp                       0      0.00%     62.98% # Class of executed instruction
system.cpu.op_class::FloatCvt                       0      0.00%     62.98% # Class of executed instruction
system.cpu.op_class::FloatMult                      0      0.00%     62.98% # Class of executed instruction
system.cpu.op_class::FloatMultAcc                   0      0.00%     62.98% # Class of executed instruction
system.cpu.op_class::FloatDiv                       0      0.00%     62.98% # Class of executed instruction
system.cpu.op_class::FloatMisc                      0      0.00%     62.98% # Class of executed instruction
system.cpu.op_class::FloatSqrt                      0      0.00%     62.98% # Class of executed instruction
system.cpu.op_class::SimdAdd                      374      0.00%     62.98% # Class of executed instruction
system.cpu.op_class::SimdAddAcc                     0      0.00%     62.98% # Class of executed instruction
system.cpu.op_class::SimdAlu                       68      0.00%     62.98% # Class of executed instruction
system.cpu.op_class::SimdCmp                        0      0.00%     62.98% # Class of executed instruction
system.cpu.op_class::SimdCvt                      108      0.00%     62.98% # Class of executed instruction
system.cpu.op_class::SimdMisc                     214      0.00%     62.98% # Class of executed instruction
system.cpu.op_class::SimdMult                       0      0.00%     62.98% # Class of executed instruction
system.cpu.op_class::SimdMultAcc                    0      0.00%     62.98% # Class of executed instruction
system.cpu.op_class::SimdShift                    186      0.00%     62.98% # Class of executed instruction
system.cpu.op_class::SimdShiftAcc                   0      0.00%     62.98% # Class of executed instruction
system.cpu.op_class::SimdSqrt                       0      0.00%     62.98% # Class of executed instruction
system.cpu.op_class::SimdFloatAdd                   0      0.00%     62.98% # Class of executed instruction
system.cpu.op_class::SimdFloatAlu                   0      0.00%     62.98% # Class of executed instruction
system.cpu.op_class::SimdFloatCmp                   0      0.00%     62.98% # Class of executed instruction
system.cpu.op_class::SimdFloatCvt                   0      0.00%     62.98% # Class of executed instruction
system.cpu.op_class::SimdFloatDiv                   0      0.00%     62.98% # Class of executed instruction
system.cpu.op_class::SimdFloatMisc                  0      0.00%     62.98% # Class of executed instruction
system.cpu.op_class::SimdFloatMult                  0      0.00%     62.98% # Class of executed instruction
system.cpu.op_class::SimdFloatMultAcc               0      0.00%     62.98% # Class of executed instruction
system.cpu.op_class::SimdFloatSqrt                  0      0.00%     62.98% # Class of executed instruction
system.cpu.op_class::MemRead                238245918     29.15%     92.12% # Class of executed instruction
system.cpu.op_class::MemWrite                64374231      7.88%    100.00% # Class of executed instruction
system.cpu.op_class::FloatMemRead                  56      0.00%    100.00% # Class of executed instruction
system.cpu.op_class::FloatMemWrite                415      0.00%    100.00% # Class of executed instruction
system.cpu.op_class::IprAccess                      0      0.00%    100.00% # Class of executed instruction
system.cpu.op_class::InstPrefetch                   0      0.00%    100.00% # Class of executed instruction
system.cpu.op_class::total                  817446081                       # Class of executed instruction
system.cpu.dcache.tags.pwrStateResidencyTicks::UNDEFINED 1134431897000                       # Cumulative time (in ticks) in various power states
system.cpu.dcache.tags.tagsinuse           511.827684                       # Cycle average of tags in use
system.cpu.dcache.tags.total_refs           302620621                       # Total number of references to valid blocks.
system.cpu.dcache.tags.sampled_refs            682608                       # Sample count of references to valid blocks.
system.cpu.dcache.tags.avg_refs            443.330024                       # Average number of references to valid blocks.
system.cpu.dcache.tags.warmup_cycle            765000                       # Cycle when the warmup percentage was hit.
system.cpu.dcache.tags.occ_blocks::cpu.data   511.827684                       # Average occupied blocks per requestor
system.cpu.dcache.tags.occ_percent::cpu.data     0.999663                       # Average percentage of cache occupancy
system.cpu.dcache.tags.occ_percent::total     0.999663                       # Average percentage of cache occupancy
system.cpu.dcache.tags.occ_task_id_blocks::1024          512                       # Occupied blocks per task id
system.cpu.dcache.tags.age_task_id_blocks_1024::0           11                       # Occupied blocks per task id
system.cpu.dcache.tags.age_task_id_blocks_1024::1           18                       # Occupied blocks per task id
system.cpu.dcache.tags.age_task_id_blocks_1024::2           54                       # Occupied blocks per task id
system.cpu.dcache.tags.age_task_id_blocks_1024::3          422                       # Occupied blocks per task id
system.cpu.dcache.tags.age_task_id_blocks_1024::4            7                       # Occupied blocks per task id
system.cpu.dcache.tags.occ_task_id_percent::1024            1                       # Percentage of cache occupancy per task id
system.cpu.dcache.tags.tag_accesses         605923850                       # Number of tag accesses
system.cpu.dcache.tags.data_accesses        605923850                       # Number of data accesses
system.cpu.dcache.pwrStateResidencyTicks::UNDEFINED 1134431897000                       # Cumulative time (in ticks) in various power states
system.cpu.dcache.ReadReq_hits::cpu.data    237629879                       # number of ReadReq hits
system.cpu.dcache.ReadReq_hits::total       237629879                       # number of ReadReq hits
system.cpu.dcache.WriteReq_hits::cpu.data     64147261                       # number of WriteReq hits
system.cpu.dcache.WriteReq_hits::total       64147261                       # number of WriteReq hits
system.cpu.dcache.demand_hits::cpu.data     301777140                       # number of demand (read+write) hits
system.cpu.dcache.demand_hits::total        301777140                       # number of demand (read+write) hits
system.cpu.dcache.overall_hits::cpu.data    301777140                       # number of overall hits
system.cpu.dcache.overall_hits::total       301777140                       # number of overall hits
system.cpu.dcache.ReadReq_misses::cpu.data       616096                       # number of ReadReq misses
system.cpu.dcache.ReadReq_misses::total        616096                       # number of ReadReq misses
system.cpu.dcache.WriteReq_misses::cpu.data       227385                       # number of WriteReq misses
system.cpu.dcache.WriteReq_misses::total       227385                       # number of WriteReq misses
system.cpu.dcache.demand_misses::cpu.data       843481                       # number of demand (read+write) misses
system.cpu.dcache.demand_misses::total         843481                       # number of demand (read+write) misses
system.cpu.dcache.overall_misses::cpu.data       843481                       # number of overall misses
system.cpu.dcache.overall_misses::total        843481                       # number of overall misses
system.cpu.dcache.ReadReq_miss_latency::cpu.data 129497608000                       # number of ReadReq miss cycles
system.cpu.dcache.ReadReq_miss_latency::total 129497608000                       # number of ReadReq miss cycles
system.cpu.dcache.WriteReq_miss_latency::cpu.data  25762074000                       # number of WriteReq miss cycles
system.cpu.dcache.WriteReq_miss_latency::total  25762074000                       # number of WriteReq miss cycles
system.cpu.dcache.demand_miss_latency::cpu.data 155259682000                       # number of demand (read+write) miss cycles
system.cpu.dcache.demand_miss_latency::total 155259682000                       # number of demand (read+write) miss cycles
system.cpu.dcache.overall_miss_latency::cpu.data 155259682000                       # number of overall miss cycles
system.cpu.dcache.overall_miss_latency::total 155259682000                       # number of overall miss cycles
system.cpu.dcache.ReadReq_accesses::cpu.data    238245975                       # number of ReadReq accesses(hits+misses)
system.cpu.dcache.ReadReq_accesses::total    238245975                       # number of ReadReq accesses(hits+misses)
system.cpu.dcache.WriteReq_accesses::cpu.data     64374646                       # number of WriteReq accesses(hits+misses)
system.cpu.dcache.WriteReq_accesses::total     64374646                       # number of WriteReq accesses(hits+misses)
system.cpu.dcache.demand_accesses::cpu.data    302620621                       # number of demand (read+write) accesses
system.cpu.dcache.demand_accesses::total    302620621                       # number of demand (read+write) accesses
system.cpu.dcache.overall_accesses::cpu.data    302620621                       # number of overall (read+write) accesses
system.cpu.dcache.overall_accesses::total    302620621                       # number of overall (read+write) accesses
system.cpu.dcache.ReadReq_miss_rate::cpu.data     0.002586                       # miss rate for ReadReq accesses
system.cpu.dcache.ReadReq_miss_rate::total     0.002586                       # miss rate for ReadReq accesses
system.cpu.dcache.WriteReq_miss_rate::cpu.data     0.003532                       # miss rate for WriteReq accesses
system.cpu.dcache.WriteReq_miss_rate::total     0.003532                       # miss rate for WriteReq accesses
system.cpu.dcache.demand_miss_rate::cpu.data     0.002787                       # miss rate for demand accesses
system.cpu.dcache.demand_miss_rate::total     0.002787                       # miss rate for demand accesses
system.cpu.dcache.overall_miss_rate::cpu.data     0.002787                       # miss rate for overall accesses
system.cpu.dcache.overall_miss_rate::total     0.002787                       # miss rate for overall accesses
system.cpu.dcache.ReadReq_avg_miss_latency::cpu.data 210190.632629                       # average ReadReq miss latency
system.cpu.dcache.ReadReq_avg_miss_latency::total 210190.632629                       # average ReadReq miss latency
system.cpu.dcache.WriteReq_avg_miss_latency::cpu.data 113297.156805                       # average WriteReq miss latency
system.cpu.dcache.WriteReq_avg_miss_latency::total 113297.156805                       # average WriteReq miss latency
system.cpu.dcache.demand_avg_miss_latency::cpu.data 184070.159257                       # average overall miss latency
system.cpu.dcache.demand_avg_miss_latency::total 184070.159257                       # average overall miss latency
system.cpu.dcache.overall_avg_miss_latency::cpu.data 184070.159257                       # average overall miss latency
system.cpu.dcache.overall_avg_miss_latency::total 184070.159257                       # average overall miss latency
system.cpu.dcache.blocked_cycles::no_mshrs            0                       # number of cycles access was blocked
system.cpu.dcache.blocked_cycles::no_targets            0                       # number of cycles access was blocked
system.cpu.dcache.blocked::no_mshrs                 0                       # number of cycles access was blocked
system.cpu.dcache.blocked::no_targets               0                       # number of cycles access was blocked
system.cpu.dcache.avg_blocked_cycles::no_mshrs          nan                       # average number of cycles each access was blocked
system.cpu.dcache.avg_blocked_cycles::no_targets          nan                       # average number of cycles each access was blocked
system.cpu.dcache.writebacks::writebacks       657502                       # number of writebacks
system.cpu.dcache.writebacks::total            657502                       # number of writebacks
system.cpu.dcache.ReadReq_mshr_misses::cpu.data       616096                       # number of ReadReq MSHR misses
system.cpu.dcache.ReadReq_mshr_misses::total       616096                       # number of ReadReq MSHR misses
system.cpu.dcache.WriteReq_mshr_misses::cpu.data       227385                       # number of WriteReq MSHR misses
system.cpu.dcache.WriteReq_mshr_misses::total       227385                       # number of WriteReq MSHR misses
system.cpu.dcache.demand_mshr_misses::cpu.data       843481                       # number of demand (read+write) MSHR misses
system.cpu.dcache.demand_mshr_misses::total       843481                       # number of demand (read+write) MSHR misses
system.cpu.dcache.overall_mshr_misses::cpu.data       843481                       # number of overall MSHR misses
system.cpu.dcache.overall_mshr_misses::total       843481                       # number of overall MSHR misses
system.cpu.dcache.ReadReq_mshr_miss_latency::cpu.data 128881512000                       # number of ReadReq MSHR miss cycles
system.cpu.dcache.ReadReq_mshr_miss_latency::total 128881512000                       # number of ReadReq MSHR miss cycles
system.cpu.dcache.WriteReq_mshr_miss_latency::cpu.data  25534689000                       # number of WriteReq MSHR miss cycles
system.cpu.dcache.WriteReq_mshr_miss_latency::total  25534689000                       # number of WriteReq MSHR miss cycles
system.cpu.dcache.demand_mshr_miss_latency::cpu.data 154416201000                       # number of demand (read+write) MSHR miss cycles
system.cpu.dcache.demand_mshr_miss_latency::total 154416201000                       # number of demand (read+write) MSHR miss cycles
system.cpu.dcache.overall_mshr_miss_latency::cpu.data 154416201000                       # number of overall MSHR miss cycles
system.cpu.dcache.overall_mshr_miss_latency::total 154416201000                       # number of overall MSHR miss cycles
system.cpu.dcache.ReadReq_mshr_miss_rate::cpu.data     0.002586                       # mshr miss rate for ReadReq accesses
system.cpu.dcache.ReadReq_mshr_miss_rate::total     0.002586                       # mshr miss rate for ReadReq accesses
system.cpu.dcache.WriteReq_mshr_miss_rate::cpu.data     0.003532                       # mshr miss rate for WriteReq accesses
system.cpu.dcache.WriteReq_mshr_miss_rate::total     0.003532                       # mshr miss rate for WriteReq accesses
system.cpu.dcache.demand_mshr_miss_rate::cpu.data     0.002787                       # mshr miss rate for demand accesses
system.cpu.dcache.demand_mshr_miss_rate::total     0.002787                       # mshr miss rate for demand accesses
system.cpu.dcache.overall_mshr_miss_rate::cpu.data     0.002787                       # mshr miss rate for overall accesses
system.cpu.dcache.overall_mshr_miss_rate::total     0.002787                       # mshr miss rate for overall accesses
system.cpu.dcache.ReadReq_avg_mshr_miss_latency::cpu.data 209190.632629                       # average ReadReq mshr miss latency
system.cpu.dcache.ReadReq_avg_mshr_miss_latency::total 209190.632629                       # average ReadReq mshr miss latency
system.cpu.dcache.WriteReq_avg_mshr_miss_latency::cpu.data 112297.156805                       # average WriteReq mshr miss latency
system.cpu.dcache.WriteReq_avg_mshr_miss_latency::total 112297.156805                       # average WriteReq mshr miss latency
system.cpu.dcache.demand_avg_mshr_miss_latency::cpu.data 183070.159257                       # average overall mshr miss latency
system.cpu.dcache.demand_avg_mshr_miss_latency::total 183070.159257                       # average overall mshr miss latency
system.cpu.dcache.overall_avg_mshr_miss_latency::cpu.data 183070.159257                       # average overall mshr miss latency
system.cpu.dcache.overall_avg_mshr_miss_latency::total 183070.159257                       # average overall mshr miss latency
system.cpu.dcache.replacements                 682096                       # number of replacements
system.cpu.dtb_walker_cache.tags.pwrStateResidencyTicks::UNDEFINED 1134431897000                       # Cumulative time (in ticks) in various power states
system.cpu.dtb_walker_cache.tags.tagsinuse            0                       # Cycle average of tags in use
system.cpu.dtb_walker_cache.tags.total_refs            0                       # Total number of references to valid blocks.
system.cpu.dtb_walker_cache.tags.sampled_refs            0                       # Sample count of references to valid blocks.
system.cpu.dtb_walker_cache.tags.avg_refs          nan                       # Average number of references to valid blocks.
system.cpu.dtb_walker_cache.tags.warmup_cycle            0                       # Cycle when the warmup percentage was hit.
system.cpu.dtb_walker_cache.tags.tag_accesses            0                       # Number of tag accesses
system.cpu.dtb_walker_cache.tags.data_accesses            0                       # Number of data accesses
system.cpu.dtb_walker_cache.pwrStateResidencyTicks::UNDEFINED 1134431897000                       # Cumulative time (in ticks) in various power states
system.cpu.dtb_walker_cache.blocked_cycles::no_mshrs            0                       # number of cycles access was blocked
system.cpu.dtb_walker_cache.blocked_cycles::no_targets            0                       # number of cycles access was blocked
system.cpu.dtb_walker_cache.blocked::no_mshrs            0                       # number of cycles access was blocked
system.cpu.dtb_walker_cache.blocked::no_targets            0                       # number of cycles access was blocked
system.cpu.dtb_walker_cache.avg_blocked_cycles::no_mshrs          nan                       # average number of cycles each access was blocked
system.cpu.dtb_walker_cache.avg_blocked_cycles::no_targets          nan                       # average number of cycles each access was blocked
system.cpu.dtb_walker_cache.replacements            0                       # number of replacements
system.cpu.icache.tags.pwrStateResidencyTicks::UNDEFINED 1134431897000                       # Cumulative time (in ticks) in various power states
system.cpu.icache.tags.tagsinuse           279.475743                       # Cycle average of tags in use
system.cpu.icache.tags.total_refs           677335181                       # Total number of references to valid blocks.
system.cpu.icache.tags.sampled_refs               354                       # Sample count of references to valid blocks.
system.cpu.icache.tags.avg_refs          1913376.217514                       # Average number of references to valid blocks.
system.cpu.icache.tags.warmup_cycle            445000                       # Cycle when the warmup percentage was hit.
system.cpu.icache.tags.occ_blocks::cpu.inst   279.475743                       # Average occupied blocks per requestor
system.cpu.icache.tags.occ_percent::cpu.inst     0.545851                       # Average percentage of cache occupancy
system.cpu.icache.tags.occ_percent::total     0.545851                       # Average percentage of cache occupancy
system.cpu.icache.tags.occ_task_id_blocks::1024          306                       # Occupied blocks per task id
system.cpu.icache.tags.age_task_id_blocks_1024::0           18                       # Occupied blocks per task id
system.cpu.icache.tags.age_task_id_blocks_1024::1           21                       # Occupied blocks per task id
system.cpu.icache.tags.age_task_id_blocks_1024::4          267                       # Occupied blocks per task id
system.cpu.icache.tags.occ_task_id_percent::1024     0.597656                       # Percentage of cache occupancy per task id
system.cpu.icache.tags.tag_accesses        1354670716                       # Number of tag accesses
system.cpu.icache.tags.data_accesses       1354670716                       # Number of data accesses
system.cpu.icache.pwrStateResidencyTicks::UNDEFINED 1134431897000                       # Cumulative time (in ticks) in various power states
system.cpu.icache.ReadReq_hits::cpu.inst    677334827                       # number of ReadReq hits
system.cpu.icache.ReadReq_hits::total       677334827                       # number of ReadReq hits
system.cpu.icache.demand_hits::cpu.inst     677334827                       # number of demand (read+write) hits
system.cpu.icache.demand_hits::total        677334827                       # number of demand (read+write) hits
system.cpu.icache.overall_hits::cpu.inst    677334827                       # number of overall hits
system.cpu.icache.overall_hits::total       677334827                       # number of overall hits
system.cpu.icache.ReadReq_misses::cpu.inst          354                       # number of ReadReq misses
system.cpu.icache.ReadReq_misses::total           354                       # number of ReadReq misses
system.cpu.icache.demand_misses::cpu.inst          354                       # number of demand (read+write) misses
system.cpu.icache.demand_misses::total            354                       # number of demand (read+write) misses
system.cpu.icache.overall_misses::cpu.inst          354                       # number of overall misses
system.cpu.icache.overall_misses::total           354                       # number of overall misses
system.cpu.icache.ReadReq_miss_latency::cpu.inst     60250000                       # number of ReadReq miss cycles
system.cpu.icache.ReadReq_miss_latency::total     60250000                       # number of ReadReq miss cycles
system.cpu.icache.demand_miss_latency::cpu.inst     60250000                       # number of demand (read+write) miss cycles
system.cpu.icache.demand_miss_latency::total     60250000                       # number of demand (read+write) miss cycles
system.cpu.icache.overall_miss_latency::cpu.inst     60250000                       # number of overall miss cycles
system.cpu.icache.overall_miss_latency::total     60250000                       # number of overall miss cycles
system.cpu.icache.ReadReq_accesses::cpu.inst    677335181                       # number of ReadReq accesses(hits+misses)
system.cpu.icache.ReadReq_accesses::total    677335181                       # number of ReadReq accesses(hits+misses)
system.cpu.icache.demand_accesses::cpu.inst    677335181                       # number of demand (read+write) accesses
system.cpu.icache.demand_accesses::total    677335181                       # number of demand (read+write) accesses
system.cpu.icache.overall_accesses::cpu.inst    677335181                       # number of overall (read+write) accesses
system.cpu.icache.overall_accesses::total    677335181                       # number of overall (read+write) accesses
system.cpu.icache.ReadReq_miss_rate::cpu.inst     0.000001                       # miss rate for ReadReq accesses
system.cpu.icache.ReadReq_miss_rate::total     0.000001                       # miss rate for ReadReq accesses
system.cpu.icache.demand_miss_rate::cpu.inst     0.000001                       # miss rate for demand accesses
system.cpu.icache.demand_miss_rate::total     0.000001                       # miss rate for demand accesses
system.cpu.icache.overall_miss_rate::cpu.inst     0.000001                       # miss rate for overall accesses
system.cpu.icache.overall_miss_rate::total     0.000001                       # miss rate for overall accesses
system.cpu.icache.ReadReq_avg_miss_latency::cpu.inst 170197.740113                       # average ReadReq miss latency
system.cpu.icache.ReadReq_avg_miss_latency::total 170197.740113                       # average ReadReq miss latency
system.cpu.icache.demand_avg_miss_latency::cpu.inst 170197.740113                       # average overall miss latency
system.cpu.icache.demand_avg_miss_latency::total 170197.740113                       # average overall miss latency
system.cpu.icache.overall_avg_miss_latency::cpu.inst 170197.740113                       # average overall miss latency
system.cpu.icache.overall_avg_miss_latency::total 170197.740113                       # average overall miss latency
system.cpu.icache.blocked_cycles::no_mshrs            0                       # number of cycles access was blocked
system.cpu.icache.blocked_cycles::no_targets            0                       # number of cycles access was blocked
system.cpu.icache.blocked::no_mshrs                 0                       # number of cycles access was blocked
system.cpu.icache.blocked::no_targets               0                       # number of cycles access was blocked
system.cpu.icache.avg_blocked_cycles::no_mshrs          nan                       # average number of cycles each access was blocked
system.cpu.icache.avg_blocked_cycles::no_targets          nan                       # average number of cycles each access was blocked
system.cpu.icache.writebacks::writebacks           48                       # number of writebacks
system.cpu.icache.writebacks::total                48                       # number of writebacks
system.cpu.icache.ReadReq_mshr_misses::cpu.inst          354                       # number of ReadReq MSHR misses
system.cpu.icache.ReadReq_mshr_misses::total          354                       # number of ReadReq MSHR misses
system.cpu.icache.demand_mshr_misses::cpu.inst          354                       # number of demand (read+write) MSHR misses
system.cpu.icache.demand_mshr_misses::total          354                       # number of demand (read+write) MSHR misses
system.cpu.icache.overall_mshr_misses::cpu.inst          354                       # number of overall MSHR misses
system.cpu.icache.overall_mshr_misses::total          354                       # number of overall MSHR misses
system.cpu.icache.ReadReq_mshr_miss_latency::cpu.inst     59896000                       # number of ReadReq MSHR miss cycles
system.cpu.icache.ReadReq_mshr_miss_latency::total     59896000                       # number of ReadReq MSHR miss cycles
system.cpu.icache.demand_mshr_miss_latency::cpu.inst     59896000                       # number of demand (read+write) MSHR miss cycles
system.cpu.icache.demand_mshr_miss_latency::total     59896000                       # number of demand (read+write) MSHR miss cycles
system.cpu.icache.overall_mshr_miss_latency::cpu.inst     59896000                       # number of overall MSHR miss cycles
system.cpu.icache.overall_mshr_miss_latency::total     59896000                       # number of overall MSHR miss cycles
system.cpu.icache.ReadReq_mshr_miss_rate::cpu.inst     0.000001                       # mshr miss rate for ReadReq accesses
system.cpu.icache.ReadReq_mshr_miss_rate::total     0.000001                       # mshr miss rate for ReadReq accesses
system.cpu.icache.demand_mshr_miss_rate::cpu.inst     0.000001                       # mshr miss rate for demand accesses
system.cpu.icache.demand_mshr_miss_rate::total     0.000001                       # mshr miss rate for demand accesses
system.cpu.icache.overall_mshr_miss_rate::cpu.inst     0.000001                       # mshr miss rate for overall accesses
system.cpu.icache.overall_mshr_miss_rate::total     0.000001                       # mshr miss rate for overall accesses
system.cpu.icache.ReadReq_avg_mshr_miss_latency::cpu.inst 169197.740113                       # average ReadReq mshr miss latency
system.cpu.icache.ReadReq_avg_mshr_miss_latency::total 169197.740113                       # average ReadReq mshr miss latency
system.cpu.icache.demand_avg_mshr_miss_latency::cpu.inst 169197.740113                       # average overall mshr miss latency
system.cpu.icache.demand_avg_mshr_miss_latency::total 169197.740113                       # average overall mshr miss latency
system.cpu.icache.overall_avg_mshr_miss_latency::cpu.inst 169197.740113                       # average overall mshr miss latency
system.cpu.icache.overall_avg_mshr_miss_latency::total 169197.740113                       # average overall mshr miss latency
system.cpu.icache.replacements                     48                       # number of replacements
system.cpu.itb_walker_cache.tags.pwrStateResidencyTicks::UNDEFINED 1134431897000                       # Cumulative time (in ticks) in various power states
system.cpu.itb_walker_cache.tags.tagsinuse            0                       # Cycle average of tags in use
system.cpu.itb_walker_cache.tags.total_refs            0                       # Total number of references to valid blocks.
system.cpu.itb_walker_cache.tags.sampled_refs            0                       # Sample count of references to valid blocks.
system.cpu.itb_walker_cache.tags.avg_refs          nan                       # Average number of references to valid blocks.
system.cpu.itb_walker_cache.tags.warmup_cycle            0                       # Cycle when the warmup percentage was hit.
system.cpu.itb_walker_cache.tags.tag_accesses            0                       # Number of tag accesses
system.cpu.itb_walker_cache.tags.data_accesses            0                       # Number of data accesses
system.cpu.itb_walker_cache.pwrStateResidencyTicks::UNDEFINED 1134431897000                       # Cumulative time (in ticks) in various power states
system.cpu.itb_walker_cache.blocked_cycles::no_mshrs            0                       # number of cycles access was blocked
system.cpu.itb_walker_cache.blocked_cycles::no_targets            0                       # number of cycles access was blocked
system.cpu.itb_walker_cache.blocked::no_mshrs            0                       # number of cycles access was blocked
system.cpu.itb_walker_cache.blocked::no_targets            0                       # number of cycles access was blocked
system.cpu.itb_walker_cache.avg_blocked_cycles::no_mshrs          nan                       # average number of cycles each access was blocked
system.cpu.itb_walker_cache.avg_blocked_cycles::no_targets          nan                       # average number of cycles each access was blocked
system.cpu.itb_walker_cache.replacements            0                       # number of replacements
system.l2.tags.pwrStateResidencyTicks::UNDEFINED 1134431897000                       # Cumulative time (in ticks) in various power states
system.l2.tags.tagsinuse                  2045.651328                       # Cycle average of tags in use
system.l2.tags.total_refs                     1525979                       # Total number of references to valid blocks.
system.l2.tags.sampled_refs                    518840                       # Sample count of references to valid blocks.
system.l2.tags.avg_refs                      2.941136                       # Average number of references to valid blocks.
system.l2.tags.warmup_cycle                    434500                       # Cycle when the warmup percentage was hit.
system.l2.tags.occ_blocks::writebacks        0.996001                       # Average occupied blocks per requestor
system.l2.tags.occ_blocks::cpu.inst          0.905988                       # Average occupied blocks per requestor
system.l2.tags.occ_blocks::cpu.data       2043.749339                       # Average occupied blocks per requestor
system.l2.tags.occ_percent::writebacks       0.000486                       # Average percentage of cache occupancy
system.l2.tags.occ_percent::cpu.inst         0.000442                       # Average percentage of cache occupancy
system.l2.tags.occ_percent::cpu.data         0.997924                       # Average percentage of cache occupancy
system.l2.tags.occ_percent::total            0.998853                       # Average percentage of cache occupancy
system.l2.tags.occ_task_id_blocks::1024          2048                       # Occupied blocks per task id
system.l2.tags.age_task_id_blocks_1024::0           40                       # Occupied blocks per task id
system.l2.tags.age_task_id_blocks_1024::1           40                       # Occupied blocks per task id
system.l2.tags.age_task_id_blocks_1024::3          450                       # Occupied blocks per task id
system.l2.tags.age_task_id_blocks_1024::4         1518                       # Occupied blocks per task id
system.l2.tags.occ_task_id_percent::1024            1                       # Percentage of cache occupancy per task id
system.l2.tags.tag_accesses                  12726672                       # Number of tag accesses
system.l2.tags.data_accesses                 12726672                       # Number of data accesses
system.l2.pwrStateResidencyTicks::UNDEFINED 1134431897000                       # Cumulative time (in ticks) in various power states
system.l2.WritebackDirty_hits::writebacks       657502                       # number of WritebackDirty hits
system.l2.WritebackDirty_hits::total           657502                       # number of WritebackDirty hits
system.l2.WritebackClean_hits::writebacks           48                       # number of WritebackClean hits
system.l2.WritebackClean_hits::total               48                       # number of WritebackClean hits
system.l2.UpgradeReq_hits::cpu.data            160873                       # number of UpgradeReq hits
system.l2.UpgradeReq_hits::total               160873                       # number of UpgradeReq hits
system.l2.ReadExReq_hits::cpu.data               3076                       # number of ReadExReq hits
system.l2.ReadExReq_hits::total                  3076                       # number of ReadExReq hits
system.l2.ReadSharedReq_hits::cpu.data         161153                       # number of ReadSharedReq hits
system.l2.ReadSharedReq_hits::total            161153                       # number of ReadSharedReq hits
system.l2.demand_hits::cpu.data                164229                       # number of demand (read+write) hits
system.l2.demand_hits::total                   164229                       # number of demand (read+write) hits
system.l2.overall_hits::cpu.data               164229                       # number of overall hits
system.l2.overall_hits::total                  164229                       # number of overall hits
system.l2.ReadExReq_misses::cpu.data            63436                       # number of ReadExReq misses
system.l2.ReadExReq_misses::total               63436                       # number of ReadExReq misses
system.l2.ReadCleanReq_misses::cpu.inst           354                       # number of ReadCleanReq misses
system.l2.ReadCleanReq_misses::total              354                       # number of ReadCleanReq misses
system.l2.ReadSharedReq_misses::cpu.data       454943                       # number of ReadSharedReq misses
system.l2.ReadSharedReq_misses::total          454943                       # number of ReadSharedReq misses
system.l2.demand_misses::cpu.inst                 354                       # number of demand (read+write) misses
system.l2.demand_misses::cpu.data              518379                       # number of demand (read+write) misses
system.l2.demand_misses::total                 518733                       # number of demand (read+write) misses
system.l2.overall_misses::cpu.inst                354                       # number of overall misses
system.l2.overall_misses::cpu.data             518379                       # number of overall misses
system.l2.overall_misses::total                518733                       # number of overall misses
system.l2.ReadExReq_miss_latency::cpu.data  23472147000                       # number of ReadExReq miss cycles
system.l2.ReadExReq_miss_latency::total   23472147000                       # number of ReadExReq miss cycles
system.l2.ReadCleanReq_miss_latency::cpu.inst     59364500                       # number of ReadCleanReq miss cycles
system.l2.ReadCleanReq_miss_latency::total     59364500                       # number of ReadCleanReq miss cycles
system.l2.ReadSharedReq_miss_latency::cpu.data 126265261500                       # number of ReadSharedReq miss cycles
system.l2.ReadSharedReq_miss_latency::total 126265261500                       # number of ReadSharedReq miss cycles
system.l2.demand_miss_latency::cpu.inst      59364500                       # number of demand (read+write) miss cycles
system.l2.demand_miss_latency::cpu.data  149737408500                       # number of demand (read+write) miss cycles
system.l2.demand_miss_latency::total     149796773000                       # number of demand (read+write) miss cycles
system.l2.overall_miss_latency::cpu.inst     59364500                       # number of overall miss cycles
system.l2.overall_miss_latency::cpu.data 149737408500                       # number of overall miss cycles
system.l2.overall_miss_latency::total    149796773000                       # number of overall miss cycles
system.l2.WritebackDirty_accesses::writebacks       657502                       # number of WritebackDirty accesses(hits+misses)
system.l2.WritebackDirty_accesses::total       657502                       # number of WritebackDirty accesses(hits+misses)
system.l2.WritebackClean_accesses::writebacks           48                       # number of WritebackClean accesses(hits+misses)
system.l2.WritebackClean_accesses::total           48                       # number of WritebackClean accesses(hits+misses)
system.l2.UpgradeReq_accesses::cpu.data        160873                       # number of UpgradeReq accesses(hits+misses)
system.l2.UpgradeReq_accesses::total           160873                       # number of UpgradeReq accesses(hits+misses)
system.l2.ReadExReq_accesses::cpu.data          66512                       # number of ReadExReq accesses(hits+misses)
system.l2.ReadExReq_accesses::total             66512                       # number of ReadExReq accesses(hits+misses)
system.l2.ReadCleanReq_accesses::cpu.inst          354                       # number of ReadCleanReq accesses(hits+misses)
system.l2.ReadCleanReq_accesses::total            354                       # number of ReadCleanReq accesses(hits+misses)
system.l2.ReadSharedReq_accesses::cpu.data       616096                       # number of ReadSharedReq accesses(hits+misses)
system.l2.ReadSharedReq_accesses::total        616096                       # number of ReadSharedReq accesses(hits+misses)
system.l2.demand_accesses::cpu.inst               354                       # number of demand (read+write) accesses
system.l2.demand_accesses::cpu.data            682608                       # number of demand (read+write) accesses
system.l2.demand_accesses::total               682962                       # number of demand (read+write) accesses
system.l2.overall_accesses::cpu.inst              354                       # number of overall (read+write) accesses
system.l2.overall_accesses::cpu.data           682608                       # number of overall (read+write) accesses
system.l2.overall_accesses::total              682962                       # number of overall (read+write) accesses
system.l2.ReadExReq_miss_rate::cpu.data      0.953753                       # miss rate for ReadExReq accesses
system.l2.ReadExReq_miss_rate::total         0.953753                       # miss rate for ReadExReq accesses
system.l2.ReadCleanReq_miss_rate::cpu.inst            1                       # miss rate for ReadCleanReq accesses
system.l2.ReadCleanReq_miss_rate::total             1                       # miss rate for ReadCleanReq accesses
system.l2.ReadSharedReq_miss_rate::cpu.data     0.738429                       # miss rate for ReadSharedReq accesses
system.l2.ReadSharedReq_miss_rate::total     0.738429                       # miss rate for ReadSharedReq accesses
system.l2.demand_miss_rate::cpu.inst                1                       # miss rate for demand accesses
system.l2.demand_miss_rate::cpu.data         0.759410                       # miss rate for demand accesses
system.l2.demand_miss_rate::total            0.759534                       # miss rate for demand accesses
system.l2.overall_miss_rate::cpu.inst               1                       # miss rate for overall accesses
system.l2.overall_miss_rate::cpu.data        0.759410                       # miss rate for overall accesses
system.l2.overall_miss_rate::total           0.759534                       # miss rate for overall accesses
system.l2.ReadExReq_avg_miss_latency::cpu.data 370013.036761                       # average ReadExReq miss latency
system.l2.ReadExReq_avg_miss_latency::total 370013.036761                       # average ReadExReq miss latency
system.l2.ReadCleanReq_avg_miss_latency::cpu.inst 167696.327684                       # average ReadCleanReq miss latency
system.l2.ReadCleanReq_avg_miss_latency::total 167696.327684                       # average ReadCleanReq miss latency
system.l2.ReadSharedReq_avg_miss_latency::cpu.data 277540.838083                       # average ReadSharedReq miss latency
system.l2.ReadSharedReq_avg_miss_latency::total 277540.838083                       # average ReadSharedReq miss latency
system.l2.demand_avg_miss_latency::cpu.inst 167696.327684                       # average overall miss latency
system.l2.demand_avg_miss_latency::cpu.data 288857.010990                       # average overall miss latency
system.l2.demand_avg_miss_latency::total 288774.327062                       # average overall miss latency
system.l2.overall_avg_miss_latency::cpu.inst 167696.327684                       # average overall miss latency
system.l2.overall_avg_miss_latency::cpu.data 288857.010990                       # average overall miss latency
system.l2.overall_avg_miss_latency::total 288774.327062                       # average overall miss latency
system.l2.blocked_cycles::no_mshrs                  0                       # number of cycles access was blocked
system.l2.blocked_cycles::no_targets                0                       # number of cycles access was blocked
system.l2.blocked::no_mshrs                         0                       # number of cycles access was blocked
system.l2.blocked::no_targets                       0                       # number of cycles access was blocked
system.l2.avg_blocked_cycles::no_mshrs            nan                       # average number of cycles each access was blocked
system.l2.avg_blocked_cycles::no_targets          nan                       # average number of cycles each access was blocked
system.l2.writebacks::writebacks               507067                       # number of writebacks
system.l2.writebacks::total                    507067                       # number of writebacks
system.l2.ReadExReq_mshr_misses::cpu.data        63436                       # number of ReadExReq MSHR misses
system.l2.ReadExReq_mshr_misses::total          63436                       # number of ReadExReq MSHR misses
system.l2.ReadCleanReq_mshr_misses::cpu.inst          354                       # number of ReadCleanReq MSHR misses
system.l2.ReadCleanReq_mshr_misses::total          354                       # number of ReadCleanReq MSHR misses
system.l2.ReadSharedReq_mshr_misses::cpu.data       454943                       # number of ReadSharedReq MSHR misses
system.l2.ReadSharedReq_mshr_misses::total       454943                       # number of ReadSharedReq MSHR misses
system.l2.demand_mshr_misses::cpu.inst            354                       # number of demand (read+write) MSHR misses
system.l2.demand_mshr_misses::cpu.data         518379                       # number of demand (read+write) MSHR misses
system.l2.demand_mshr_misses::total            518733                       # number of demand (read+write) MSHR misses
system.l2.overall_mshr_misses::cpu.inst           354                       # number of overall MSHR misses
system.l2.overall_mshr_misses::cpu.data        518379                       # number of overall MSHR misses
system.l2.overall_mshr_misses::total           518733                       # number of overall MSHR misses
system.l2.ReadExReq_mshr_miss_latency::cpu.data  22837787000                       # number of ReadExReq MSHR miss cycles
system.l2.ReadExReq_mshr_miss_latency::total  22837787000                       # number of ReadExReq MSHR miss cycles
system.l2.ReadCleanReq_mshr_miss_latency::cpu.inst     55824500                       # number of ReadCleanReq MSHR miss cycles
system.l2.ReadCleanReq_mshr_miss_latency::total     55824500                       # number of ReadCleanReq MSHR miss cycles
system.l2.ReadSharedReq_mshr_miss_latency::cpu.data 121715831500                       # number of ReadSharedReq MSHR miss cycles
system.l2.ReadSharedReq_mshr_miss_latency::total 121715831500                       # number of ReadSharedReq MSHR miss cycles
system.l2.demand_mshr_miss_latency::cpu.inst     55824500                       # number of demand (read+write) MSHR miss cycles
system.l2.demand_mshr_miss_latency::cpu.data 144553618500                       # number of demand (read+write) MSHR miss cycles
system.l2.demand_mshr_miss_latency::total 144609443000                       # number of demand (read+write) MSHR miss cycles
system.l2.overall_mshr_miss_latency::cpu.inst     55824500                       # number of overall MSHR miss cycles
system.l2.overall_mshr_miss_latency::cpu.data 144553618500                       # number of overall MSHR miss cycles
system.l2.overall_mshr_miss_latency::total 144609443000                       # number of overall MSHR miss cycles
system.l2.ReadExReq_mshr_miss_rate::cpu.data     0.953753                       # mshr miss rate for ReadExReq accesses
system.l2.ReadExReq_mshr_miss_rate::total     0.953753                       # mshr miss rate for ReadExReq accesses
system.l2.ReadCleanReq_mshr_miss_rate::cpu.inst            1                       # mshr miss rate for ReadCleanReq accesses
system.l2.ReadCleanReq_mshr_miss_rate::total            1                       # mshr miss rate for ReadCleanReq accesses
system.l2.ReadSharedReq_mshr_miss_rate::cpu.data     0.738429                       # mshr miss rate for ReadSharedReq accesses
system.l2.ReadSharedReq_mshr_miss_rate::total     0.738429                       # mshr miss rate for ReadSharedReq accesses
system.l2.demand_mshr_miss_rate::cpu.inst            1                       # mshr miss rate for demand accesses
system.l2.demand_mshr_miss_rate::cpu.data     0.759410                       # mshr miss rate for demand accesses
system.l2.demand_mshr_miss_rate::total       0.759534                       # mshr miss rate for demand accesses
system.l2.overall_mshr_miss_rate::cpu.inst            1                       # mshr miss rate for overall accesses
system.l2.overall_mshr_miss_rate::cpu.data     0.759410                       # mshr miss rate for overall accesses
system.l2.overall_mshr_miss_rate::total      0.759534                       # mshr miss rate for overall accesses
system.l2.ReadExReq_avg_mshr_miss_latency::cpu.data 360013.036761                       # average ReadExReq mshr miss latency
system.l2.ReadExReq_avg_mshr_miss_latency::total 360013.036761                       # average ReadExReq mshr miss latency
system.l2.ReadCleanReq_avg_mshr_miss_latency::cpu.inst 157696.327684                       # average ReadCleanReq mshr miss latency
system.l2.ReadCleanReq_avg_mshr_miss_latency::total 157696.327684                       # average ReadCleanReq mshr miss latency
system.l2.ReadSharedReq_avg_mshr_miss_latency::cpu.data 267540.838083                       # average ReadSharedReq mshr miss latency
system.l2.ReadSharedReq_avg_mshr_miss_latency::total 267540.838083                       # average ReadSharedReq mshr miss latency
system.l2.demand_avg_mshr_miss_latency::cpu.inst 157696.327684                       # average overall mshr miss latency
system.l2.demand_avg_mshr_miss_latency::cpu.data 278857.010990                       # average overall mshr miss latency
system.l2.demand_avg_mshr_miss_latency::total 278774.327062                       # average overall mshr miss latency
system.l2.overall_avg_mshr_miss_latency::cpu.inst 157696.327684                       # average overall mshr miss latency
system.l2.overall_avg_mshr_miss_latency::cpu.data 278857.010990                       # average overall mshr miss latency
system.l2.overall_avg_mshr_miss_latency::total 278774.327062                       # average overall mshr miss latency
system.l2.replacements                         516792                       # number of replacements
system.l3.tags.pwrStateResidencyTicks::UNDEFINED 1134431897000                       # Cumulative time (in ticks) in various power states
system.l3.tags.tagsinuse                  8134.769911                       # Cycle average of tags in use
system.l3.tags.total_refs                     1034645                       # Total number of references to valid blocks.
system.l3.tags.sampled_refs                    389719                       # Sample count of references to valid blocks.
system.l3.tags.avg_refs                      2.654849                       # Average number of references to valid blocks.
system.l3.tags.warmup_cycle                    418000                       # Cycle when the warmup percentage was hit.
system.l3.tags.occ_blocks::writebacks      541.488857                       # Average occupied blocks per requestor
system.l3.tags.occ_blocks::cpu.inst          1.993692                       # Average occupied blocks per requestor
system.l3.tags.occ_blocks::cpu.data       7591.287362                       # Average occupied blocks per requestor
system.l3.tags.occ_percent::writebacks       0.066100                       # Average percentage of cache occupancy
system.l3.tags.occ_percent::cpu.inst         0.000243                       # Average percentage of cache occupancy
system.l3.tags.occ_percent::cpu.data         0.926671                       # Average percentage of cache occupancy
system.l3.tags.occ_percent::total            0.993014                       # Average percentage of cache occupancy
system.l3.tags.occ_task_id_blocks::1024          8192                       # Occupied blocks per task id
system.l3.tags.age_task_id_blocks_1024::0           29                       # Occupied blocks per task id
system.l3.tags.age_task_id_blocks_1024::1           38                       # Occupied blocks per task id
system.l3.tags.age_task_id_blocks_1024::4         8125                       # Occupied blocks per task id
system.l3.tags.occ_task_id_percent::1024            1                       # Percentage of cache occupancy per task id
system.l3.tags.tag_accesses                   1424869                       # Number of tag accesses
system.l3.tags.data_accesses                  1424869                       # Number of data accesses
system.l3.pwrStateResidencyTicks::UNDEFINED 1134431897000                       # Cumulative time (in ticks) in various power states
system.l3.WritebackDirty_hits::writebacks       507066                       # number of WritebackDirty hits
system.l3.WritebackDirty_hits::total           507066                       # number of WritebackDirty hits
system.l3.ReadExReq_hits::cpu.data                478                       # number of ReadExReq hits
system.l3.ReadExReq_hits::total                   478                       # number of ReadExReq hits
system.l3.ReadSharedReq_hits::cpu.data         176619                       # number of ReadSharedReq hits
system.l3.ReadSharedReq_hits::total            176619                       # number of ReadSharedReq hits
system.l3.demand_hits::cpu.data                177097                       # number of demand (read+write) hits
system.l3.demand_hits::total                   177097                       # number of demand (read+write) hits
system.l3.overall_hits::cpu.data               177097                       # number of overall hits
system.l3.overall_hits::total                  177097                       # number of overall hits
system.l3.ReadExReq_misses::cpu.data            62958                       # number of ReadExReq misses
system.l3.ReadExReq_misses::total               62958                       # number of ReadExReq misses
system.l3.ReadSharedReq_misses::cpu.inst          354                       # number of ReadSharedReq misses
system.l3.ReadSharedReq_misses::cpu.data       278324                       # number of ReadSharedReq misses
system.l3.ReadSharedReq_misses::total          278678                       # number of ReadSharedReq misses
system.l3.demand_misses::cpu.inst                 354                       # number of demand (read+write) misses
system.l3.demand_misses::cpu.data              341282                       # number of demand (read+write) misses
system.l3.demand_misses::total                 341636                       # number of demand (read+write) misses
system.l3.overall_misses::cpu.inst                354                       # number of overall misses
system.l3.overall_misses::cpu.data             341282                       # number of overall misses
system.l3.overall_misses::total                341636                       # number of overall misses
system.l3.ReadExReq_miss_latency::cpu.data  22132104000                       # number of ReadExReq miss cycles
system.l3.ReadExReq_miss_latency::total   22132104000                       # number of ReadExReq miss cycles
system.l3.ReadSharedReq_miss_latency::cpu.inst     51930500                       # number of ReadSharedReq miss cycles
system.l3.ReadSharedReq_miss_latency::cpu.data 113797245000                       # number of ReadSharedReq miss cycles
system.l3.ReadSharedReq_miss_latency::total 113849175500                       # number of ReadSharedReq miss cycles
system.l3.demand_miss_latency::cpu.inst      51930500                       # number of demand (read+write) miss cycles
system.l3.demand_miss_latency::cpu.data  135929349000                       # number of demand (read+write) miss cycles
system.l3.demand_miss_latency::total     135981279500                       # number of demand (read+write) miss cycles
system.l3.overall_miss_latency::cpu.inst     51930500                       # number of overall miss cycles
system.l3.overall_miss_latency::cpu.data 135929349000                       # number of overall miss cycles
system.l3.overall_miss_latency::total    135981279500                       # number of overall miss cycles
system.l3.WritebackDirty_accesses::writebacks       507066                       # number of WritebackDirty accesses(hits+misses)
system.l3.WritebackDirty_accesses::total       507066                       # number of WritebackDirty accesses(hits+misses)
system.l3.ReadExReq_accesses::cpu.data          63436                       # number of ReadExReq accesses(hits+misses)
system.l3.ReadExReq_accesses::total             63436                       # number of ReadExReq accesses(hits+misses)
system.l3.ReadSharedReq_accesses::cpu.inst          354                       # number of ReadSharedReq accesses(hits+misses)
system.l3.ReadSharedReq_accesses::cpu.data       454943                       # number of ReadSharedReq accesses(hits+misses)
system.l3.ReadSharedReq_accesses::total        455297                       # number of ReadSharedReq accesses(hits+misses)
system.l3.demand_accesses::cpu.inst               354                       # number of demand (read+write) accesses
system.l3.demand_accesses::cpu.data            518379                       # number of demand (read+write) accesses
system.l3.demand_accesses::total               518733                       # number of demand (read+write) accesses
system.l3.overall_accesses::cpu.inst              354                       # number of overall (read+write) accesses
system.l3.overall_accesses::cpu.data           518379                       # number of overall (read+write) accesses
system.l3.overall_accesses::total              518733                       # number of overall (read+write) accesses
system.l3.ReadExReq_miss_rate::cpu.data      0.992465                       # miss rate for ReadExReq accesses
system.l3.ReadExReq_miss_rate::total         0.992465                       # miss rate for ReadExReq accesses
system.l3.ReadSharedReq_miss_rate::cpu.inst            1                       # miss rate for ReadSharedReq accesses
system.l3.ReadSharedReq_miss_rate::cpu.data     0.611778                       # miss rate for ReadSharedReq accesses
system.l3.ReadSharedReq_miss_rate::total     0.612080                       # miss rate for ReadSharedReq accesses
system.l3.demand_miss_rate::cpu.inst                1                       # miss rate for demand accesses
system.l3.demand_miss_rate::cpu.data         0.658364                       # miss rate for demand accesses
system.l3.demand_miss_rate::total            0.658597                       # miss rate for demand accesses
system.l3.overall_miss_rate::cpu.inst               1                       # miss rate for overall accesses
system.l3.overall_miss_rate::cpu.data        0.658364                       # miss rate for overall accesses
system.l3.overall_miss_rate::total           0.658597                       # miss rate for overall accesses
system.l3.ReadExReq_avg_miss_latency::cpu.data 351537.596493                       # average ReadExReq miss latency
system.l3.ReadExReq_avg_miss_latency::total 351537.596493                       # average ReadExReq miss latency
system.l3.ReadSharedReq_avg_miss_latency::cpu.inst 146696.327684                       # average ReadSharedReq miss latency
system.l3.ReadSharedReq_avg_miss_latency::cpu.data 408866.087725                       # average ReadSharedReq miss latency
system.l3.ReadSharedReq_avg_miss_latency::total 408533.057866                       # average ReadSharedReq miss latency
system.l3.demand_avg_miss_latency::cpu.inst 146696.327684                       # average overall miss latency
system.l3.demand_avg_miss_latency::cpu.data 398290.413793                       # average overall miss latency
system.l3.demand_avg_miss_latency::total 398029.714374                       # average overall miss latency
system.l3.overall_avg_miss_latency::cpu.inst 146696.327684                       # average overall miss latency
system.l3.overall_avg_miss_latency::cpu.data 398290.413793                       # average overall miss latency
system.l3.overall_avg_miss_latency::total 398029.714374                       # average overall miss latency
system.l3.blocked_cycles::no_mshrs                  0                       # number of cycles access was blocked
system.l3.blocked_cycles::no_targets                0                       # number of cycles access was blocked
system.l3.blocked::no_mshrs                         0                       # number of cycles access was blocked
system.l3.blocked::no_targets                       0                       # number of cycles access was blocked
system.l3.avg_blocked_cycles::no_mshrs            nan                       # average number of cycles each access was blocked
system.l3.avg_blocked_cycles::no_targets          nan                       # average number of cycles each access was blocked
system.l3.writebacks::writebacks               325165                       # number of writebacks
system.l3.writebacks::total                    325165                       # number of writebacks
system.l3.CleanEvict_mshr_misses::writebacks          505                       # number of CleanEvict MSHR misses
system.l3.CleanEvict_mshr_misses::total           505                       # number of CleanEvict MSHR misses
system.l3.ReadExReq_mshr_misses::cpu.data        62958                       # number of ReadExReq MSHR misses
system.l3.ReadExReq_mshr_misses::total          62958                       # number of ReadExReq MSHR misses
system.l3.ReadSharedReq_mshr_misses::cpu.inst          354                       # number of ReadSharedReq MSHR misses
system.l3.ReadSharedReq_mshr_misses::cpu.data       278324                       # number of ReadSharedReq MSHR misses
system.l3.ReadSharedReq_mshr_misses::total       278678                       # number of ReadSharedReq MSHR misses
system.l3.demand_mshr_misses::cpu.inst            354                       # number of demand (read+write) MSHR misses
system.l3.demand_mshr_misses::cpu.data         341282                       # number of demand (read+write) MSHR misses
system.l3.demand_mshr_misses::total            341636                       # number of demand (read+write) MSHR misses
system.l3.overall_mshr_misses::cpu.inst           354                       # number of overall MSHR misses
system.l3.overall_mshr_misses::cpu.data        341282                       # number of overall MSHR misses
system.l3.overall_mshr_misses::total           341636                       # number of overall MSHR misses
system.l3.ReadExReq_mshr_miss_latency::cpu.data  21124776000                       # number of ReadExReq MSHR miss cycles
system.l3.ReadExReq_mshr_miss_latency::total  21124776000                       # number of ReadExReq MSHR miss cycles
system.l3.ReadSharedReq_mshr_miss_latency::cpu.inst     46266500                       # number of ReadSharedReq MSHR miss cycles
system.l3.ReadSharedReq_mshr_miss_latency::cpu.data 109344061000                       # number of ReadSharedReq MSHR miss cycles
system.l3.ReadSharedReq_mshr_miss_latency::total 109390327500                       # number of ReadSharedReq MSHR miss cycles
system.l3.demand_mshr_miss_latency::cpu.inst     46266500                       # number of demand (read+write) MSHR miss cycles
system.l3.demand_mshr_miss_latency::cpu.data 130468837000                       # number of demand (read+write) MSHR miss cycles
system.l3.demand_mshr_miss_latency::total 130515103500                       # number of demand (read+write) MSHR miss cycles
system.l3.overall_mshr_miss_latency::cpu.inst     46266500                       # number of overall MSHR miss cycles
system.l3.overall_mshr_miss_latency::cpu.data 130468837000                       # number of overall MSHR miss cycles
system.l3.overall_mshr_miss_latency::total 130515103500                       # number of overall MSHR miss cycles
system.l3.CleanEvict_mshr_miss_rate::writebacks          inf                       # mshr miss rate for CleanEvict accesses
system.l3.CleanEvict_mshr_miss_rate::total          inf                       # mshr miss rate for CleanEvict accesses
system.l3.ReadExReq_mshr_miss_rate::cpu.data     0.992465                       # mshr miss rate for ReadExReq accesses
system.l3.ReadExReq_mshr_miss_rate::total     0.992465                       # mshr miss rate for ReadExReq accesses
system.l3.ReadSharedReq_mshr_miss_rate::cpu.inst            1                       # mshr miss rate for ReadSharedReq accesses
system.l3.ReadSharedReq_mshr_miss_rate::cpu.data     0.611778                       # mshr miss rate for ReadSharedReq accesses
system.l3.ReadSharedReq_mshr_miss_rate::total     0.612080                       # mshr miss rate for ReadSharedReq accesses
system.l3.demand_mshr_miss_rate::cpu.inst            1                       # mshr miss rate for demand accesses
system.l3.demand_mshr_miss_rate::cpu.data     0.658364                       # mshr miss rate for demand accesses
system.l3.demand_mshr_miss_rate::total       0.658597                       # mshr miss rate for demand accesses
system.l3.overall_mshr_miss_rate::cpu.inst            1                       # mshr miss rate for overall accesses
system.l3.overall_mshr_miss_rate::cpu.data     0.658364                       # mshr miss rate for overall accesses
system.l3.overall_mshr_miss_rate::total      0.658597                       # mshr miss rate for overall accesses
system.l3.ReadExReq_avg_mshr_miss_latency::cpu.data 335537.596493                       # average ReadExReq mshr miss latency
system.l3.ReadExReq_avg_mshr_miss_latency::total 335537.596493                       # average ReadExReq mshr miss latency
system.l3.ReadSharedReq_avg_mshr_miss_latency::cpu.inst 130696.327684                       # average ReadSharedReq mshr miss latency
system.l3.ReadSharedReq_avg_mshr_miss_latency::cpu.data 392866.087725                       # average ReadSharedReq mshr miss latency
system.l3.ReadSharedReq_avg_mshr_miss_latency::total 392533.057866                       # average ReadSharedReq mshr miss latency
system.l3.demand_avg_mshr_miss_latency::cpu.inst 130696.327684                       # average overall mshr miss latency
system.l3.demand_avg_mshr_miss_latency::cpu.data 382290.413793                       # average overall mshr miss latency
system.l3.demand_avg_mshr_miss_latency::total 382029.714374                       # average overall mshr miss latency
system.l3.overall_avg_mshr_miss_latency::cpu.inst 130696.327684                       # average overall mshr miss latency
system.l3.overall_avg_mshr_miss_latency::cpu.data 382290.413793                       # average overall mshr miss latency
system.l3.overall_avg_mshr_miss_latency::total 382029.714374                       # average overall mshr miss latency
system.l3.replacements                         381527                       # number of replacements
system.membus.snoop_filter.tot_requests        697798                       # Total number of requests made to the snoop filter.
system.membus.snoop_filter.hit_single_requests       356162                       # Number of requests hitting in the snoop filter with a single holder of the requested data.
system.membus.snoop_filter.hit_multi_requests            0                       # Number of requests hitting in the snoop filter with multiple (>1) holders of the requested data.
system.membus.snoop_filter.tot_snoops               0                       # Total number of snoops made to the snoop filter.
system.membus.snoop_filter.hit_single_snoops            0                       # Number of snoops hitting in the snoop filter with a single holder of the requested data.
system.membus.snoop_filter.hit_multi_snoops            0                       # Number of snoops hitting in the snoop filter with multiple (>1) holders of the requested data.
system.membus.pwrStateResidencyTicks::UNDEFINED 1134431897000                       # Cumulative time (in ticks) in various power states
system.membus.trans_dist::ReadResp             278678                       # Transaction distribution
system.membus.trans_dist::WritebackDirty       325165                       # Transaction distribution
system.membus.trans_dist::CleanEvict             7994                       # Transaction distribution
system.membus.trans_dist::ReadExReq             62958                       # Transaction distribution
system.membus.trans_dist::ReadExResp            62958                       # Transaction distribution
system.membus.trans_dist::ReadSharedReq        278678                       # Transaction distribution
system.membus.pkt_count_system.l3.mem_side::system.mem_ctrls.port      1016431                       # Packet count per connected master and slave (bytes)
system.membus.pkt_count_system.l3.mem_side::total      1016431                       # Packet count per connected master and slave (bytes)
system.membus.pkt_count::total                1016431                       # Packet count per connected master and slave (bytes)
system.membus.pkt_size_system.l3.mem_side::system.mem_ctrls.port     42675264                       # Cumulative packet size per connected master and slave (bytes)
system.membus.pkt_size_system.l3.mem_side::total     42675264                       # Cumulative packet size per connected master and slave (bytes)
system.membus.pkt_size::total                42675264                       # Cumulative packet size per connected master and slave (bytes)
system.membus.snoops                                0                       # Total snoops (count)
system.membus.snoopTraffic                          0                       # Total snoop traffic (bytes)
system.membus.snoop_fanout::samples            341636                       # Request fanout histogram
system.membus.snoop_fanout::mean                    0                       # Request fanout histogram
system.membus.snoop_fanout::stdev                   0                       # Request fanout histogram
system.membus.snoop_fanout::underflows              0      0.00%      0.00% # Request fanout histogram
system.membus.snoop_fanout::0                  341636    100.00%    100.00% # Request fanout histogram
system.membus.snoop_fanout::1                       0      0.00%    100.00% # Request fanout histogram
system.membus.snoop_fanout::overflows               0      0.00%    100.00% # Request fanout histogram
system.membus.snoop_fanout::min_value               0                       # Request fanout histogram
system.membus.snoop_fanout::max_value               0                       # Request fanout histogram
system.membus.snoop_fanout::total              341636                       # Request fanout histogram
system.membus.reqLayer2.occupancy          1998458500                       # Layer occupancy (ticks)
system.membus.reqLayer2.utilization               0.2                       # Layer utilization (%)
system.membus.respLayer1.occupancy         1708180500                       # Layer occupancy (ticks)
system.membus.respLayer1.utilization              0.2                       # Layer utilization (%)
system.tol2bus.snoop_filter.tot_requests      1525979                       # Total number of requests made to the snoop filter.
system.tol2bus.snoop_filter.hit_single_requests       843017                       # Number of requests hitting in the snoop filter with a single holder of the requested data.
system.tol2bus.snoop_filter.hit_multi_requests            0                       # Number of requests hitting in the snoop filter with multiple (>1) holders of the requested data.
system.tol2bus.snoop_filter.tot_snoops          15298                       # Total number of snoops made to the snoop filter.
system.tol2bus.snoop_filter.hit_single_snoops        15298                       # Number of snoops hitting in the snoop filter with a single holder of the requested data.
system.tol2bus.snoop_filter.hit_multi_snoops            0                       # Number of snoops hitting in the snoop filter with multiple (>1) holders of the requested data.
system.tol2bus.pwrStateResidencyTicks::UNDEFINED 1134431897000                       # Cumulative time (in ticks) in various power states
system.tol2bus.trans_dist::ReadResp            616450                       # Transaction distribution
system.tol2bus.trans_dist::WritebackDirty      1489734                       # Transaction distribution
system.tol2bus.trans_dist::WritebackClean           48                       # Transaction distribution
system.tol2bus.trans_dist::CleanEvict           90681                       # Transaction distribution
system.tol2bus.trans_dist::UpgradeReq          160873                       # Transaction distribution
system.tol2bus.trans_dist::UpgradeResp         160873                       # Transaction distribution
system.tol2bus.trans_dist::ReadExReq            66512                       # Transaction distribution
system.tol2bus.trans_dist::ReadExResp           66512                       # Transaction distribution
system.tol2bus.trans_dist::ReadCleanReq           354                       # Transaction distribution
system.tol2bus.trans_dist::ReadSharedReq       616096                       # Transaction distribution
system.tol2bus.pkt_count_system.cpu.icache.mem_side::system.l2.cpu_side          756                       # Packet count per connected master and slave (bytes)
system.tol2bus.pkt_count_system.cpu.dcache.mem_side::system.l2.cpu_side      2369058                       # Packet count per connected master and slave (bytes)
system.tol2bus.pkt_count::total               2369814                       # Packet count per connected master and slave (bytes)
system.tol2bus.pkt_size_system.cpu.icache.mem_side::system.l2.cpu_side        25728                       # Cumulative packet size per connected master and slave (bytes)
system.tol2bus.pkt_size_system.cpu.dcache.mem_side::system.l2.cpu_side     85767040                       # Cumulative packet size per connected master and slave (bytes)
system.tol2bus.pkt_size::total               85792768                       # Cumulative packet size per connected master and slave (bytes)
system.tol2bus.snoops                          898319                       # Total snoops (count)
system.tol2bus.snoopTraffic                  53262848                       # Total snoop traffic (bytes)
system.tol2bus.snoop_fanout::samples          1742154                       # Request fanout histogram
system.tol2bus.snoop_fanout::mean            0.008781                       # Request fanout histogram
system.tol2bus.snoop_fanout::stdev           0.093295                       # Request fanout histogram
system.tol2bus.snoop_fanout::underflows             0      0.00%      0.00% # Request fanout histogram
system.tol2bus.snoop_fanout::0                1726856     99.12%     99.12% # Request fanout histogram
system.tol2bus.snoop_fanout::1                  15298      0.88%    100.00% # Request fanout histogram
system.tol2bus.snoop_fanout::2                      0      0.00%    100.00% # Request fanout histogram
system.tol2bus.snoop_fanout::3                      0      0.00%    100.00% # Request fanout histogram
system.tol2bus.snoop_fanout::4                      0      0.00%    100.00% # Request fanout histogram
system.tol2bus.snoop_fanout::overflows              0      0.00%    100.00% # Request fanout histogram
system.tol2bus.snoop_fanout::min_value              0                       # Request fanout histogram
system.tol2bus.snoop_fanout::max_value              1                       # Request fanout histogram
system.tol2bus.snoop_fanout::total            1742154                       # Request fanout histogram
system.tol2bus.reqLayer0.occupancy         1420539500                       # Layer occupancy (ticks)
system.tol2bus.reqLayer0.utilization              0.1                       # Layer utilization (%)
system.tol2bus.respLayer0.occupancy            531000                       # Layer occupancy (ticks)
system.tol2bus.respLayer0.utilization             0.0                       # Layer utilization (%)
system.tol2bus.respLayer1.occupancy        1104348500                       # Layer occupancy (ticks)
system.tol2bus.respLayer1.utilization             0.1                       # Layer utilization (%)
system.tol3bus.pwrStateResidencyTicks::UNDEFINED 1134431897000                       # Cumulative time (in ticks) in various power states
system.tol3bus.trans_dist::ReadResp            455297                       # Transaction distribution
system.tol3bus.trans_dist::WritebackDirty       832231                       # Transaction distribution
system.tol3bus.trans_dist::CleanEvict           65713                       # Transaction distribution
system.tol3bus.trans_dist::ReadExReq            63436                       # Transaction distribution
system.tol3bus.trans_dist::ReadExResp           63436                       # Transaction distribution
system.tol3bus.trans_dist::ReadSharedReq       455297                       # Transaction distribution
system.tol3bus.pkt_count_system.l2.mem_side::system.l3.cpu_side      1553883                       # Packet count per connected master and slave (bytes)
system.tol3bus.pkt_size_system.l2.mem_side::system.l3.cpu_side     65651136                       # Cumulative packet size per connected master and slave (bytes)
system.tol3bus.snoops                          381527                       # Total snoops (count)
system.tol3bus.snoopTraffic                  20810560                       # Total snoop traffic (bytes)
system.tol3bus.snoop_fanout::samples          1416677                       # Request fanout histogram
system.tol3bus.snoop_fanout::mean            0.269311                       # Request fanout histogram
system.tol3bus.snoop_fanout::stdev           0.443602                       # Request fanout histogram
system.tol3bus.snoop_fanout::underflows             0      0.00%      0.00% # Request fanout histogram
system.tol3bus.snoop_fanout::0                1035150     73.07%     73.07% # Request fanout histogram
system.tol3bus.snoop_fanout::1                 381527     26.93%    100.00% # Request fanout histogram
system.tol3bus.snoop_fanout::overflows              0      0.00%    100.00% # Request fanout histogram
system.tol3bus.snoop_fanout::min_value              0                       # Request fanout histogram
system.tol3bus.snoop_fanout::max_value              1                       # Request fanout histogram
system.tol3bus.snoop_fanout::total            1416677                       # Request fanout histogram
system.tol3bus.reqLayer0.occupancy         1024641000                       # Layer occupancy (ticks)
system.tol3bus.reqLayer0.utilization              0.1                       # Layer utilization (%)
system.tol3bus.respLayer0.occupancy         778099500                       # Layer occupancy (ticks)
system.tol3bus.respLayer0.utilization             0.1                       # Layer utilization (%)

---------- End Simulation Statistics   ----------